Measured thermophysical data. Excess molar volumes and deviations of the relative permittivity  of the binary mixtures of 2-propoxyethanol with diethylene,  triethylene, and tetraethylene glycols at various temperatures
Source: J. Chem. Thermodyn., 2008
Compound 1: 2-propoxyethanol, C5H12O2, InChI=1S/C5H12O2/c1-2-4-7-5-3-6/h6H,2-5H2,1H3, purity 99%

System: 2-propoxyethanol; phases: Liquid
Property: Relative permittivity at zero frequency (Liquid); method: Parallel plate capacitor
Temperature, K	Pressure, kPa	Relative permittivity at zero frequency	uncertainty
293.15	101	11.76	.02
