Measured thermophysical data. Volumetric properties of binary mixtures of alkoxyethanols with ethyl tert-butyl ether at various temperatures
Source: J. Chem. Thermodyn., 2005
Compound 1: 2-methoxyethanol, C3H8O2, InChI=1S/C3H8O2/c1-5-3-2-4/h4H,2-3H2,1H3, purity 99%

System: 2-methoxyethanol; phases: Liquid
Property: Mass density, kg/m3 (Liquid); method: Pycnometric method
Temperature, K	Pressure, kPa	Mass density, kg/m3	uncertainty
293.15	101.3	964.88	.05
