Compound 4: , , InChI=1S/ClH.Cs/h1H;/q;+1/p-1
Compound 5: , , InChI=1S/C5H11NO/c1-3-6(4-2)5-7/h5H,3-4H2,1-2H3
Compound 6: , , InChI=1S/H2O/h1H2

System: ; phases: Liquid
Fixed: Temperature, K = 298.15
Fixed: Pressure, kPa = 100
Property: Mass density, kg/m3 (Liquid); method: Vibrating tube method
Mass fraction	Mass fraction	Mass density, kg/m3	uncertainty
.100264	.03	1111.11	.111
