Compound 1: , , InChI=1S/ClH.Na/h1H;/q;+1/p-1
Compound 5: , , InChI=1S/C5H11NO/c1-3-6(4-2)5-7/h5H,3-4H2,1-2H3
Compound 6: , , InChI=1S/H2O/h1H2

System: ; phases: Liquid
Fixed: Pressure, kPa = 100
Property: Mass density, kg/m3 (Liquid); method: Vibrating tube method
Temperature, K	Solvent: Mass fraction	Mass fraction	Mass density, kg/m3	uncertainty
288.15	.1	.2315	1111.11	0.111
