Compound 5: , , InChI=1S/H2O/h1H2
Compound 6: , , InChI=1S/Al.3BrH/h;3*1H/q+3;;;/p-3
Compound 8: , , InChI=1S/C6H11N2.BrH/c1-3-8-5-4-7(2)6-8;/h4-6H,3H2,1-2H3;1H/q+1;/p-1

System: ; phases: Liquid
Fixed: Pressure, kPa = 101.3
Fixed: Temperature, K = 298.15
Property: Mass density, kg/m3 (Liquid); method: VIBTUB:UFactor:32
Solvent: Mole fraction	Mass fraction	Mass density, kg/m3	uncertainty
.35	.1	1111	1
