Compound 1: , , InChI=1S/C6H11N2.C2H6O4S/c1-3-8-5-4-7(2)6-8;1-2-6-7(3,4)5/h4-6H,3H2,1-2H3;2H2,1H3,(H,3,4,5)/q+1;/p-1
Compound 3: , , InChI=1S/C2H6O/c1-2-3/h3H,2H2,1H3

System: ; phases: Liquid
Fixed: Pressure, kPa = 101
Fixed: Temperature, K = 323.15
Property: Osmotic coefficient (Liquid); method: vapour pressure osmometry
Molality, mol/kg	Osmotic coefficient	uncertainty
.0734	0.111	1
