Compound 1: , , InChI=1S/C10H19N2.BrH/c1-3-4-5-6-7-12-9-8-11(2)10-12;/h8-10H,3-7H2,1-2H3;1H/q+1;/p-1
Compound 4: , , InChI=1S/C2H3N/c1-2-3/h1H3
Compound 5: , , InChI=1S/H2O/h1H2

System: ; phases: Liquid
Fixed: Pressure, kPa = 101
Property: Mass density, kg/m3 (Liquid); method: Vibrating tube method
Solvent: Mole fraction	Molality, mol/kg	Temperature, K	Mass density, kg/m3	uncertainty
.1	.02047	293.15	111.1	1
