Compound 2: , , InChI=1S/C6H12O6/c7-1-3(9)5(11)6(12)4(10)2-8/h1,3-6,8-12H,2H2/t3-,4+,5+,6+/m0/s1
Compound 3: , , InChI=1S/C5H9NO.CH2O2/c1-6-4-2-3-5(6)7;2-1-3/h2-4H2,1H3;1H,(H,2,3)
Compound 5: , , InChI=1S/H2O/h1H2

System: ; phases: Liquid
Fixed: Pressure, kPa = 100
Property: Mass density, kg/m3 (Liquid); method: Vibrating tube method
Solvent: Molality, mol/kg	Temperature, K	Molality, mol/kg	Mass density, kg/m3	uncertainty
.1	288.15	.07344	1111.111	.111
