Compound 1: , , InChI=1S/C2H5NO2/c3-1-2(4)5/h1,3H2,(H,4,5)
Compound 4: , , InChI=1S/C12H22O11/c13-1-4(16)7(18)11(5(17)2-14)23-12-10(21)9(20)8(19)6(3-15)22-12/h1,4-12,14-21H,2-3H2/t4-,5+,6+,7+,8-,9-,10+,11+,12-/m0/s1
Compound 5: , , InChI=1S/H2O/h1H2

System: ; phases: Liquid
Fixed: Solvent: Mass fraction = .0397
Fixed: Pressure, kPa = 101
Property: Mass density, kg/m3 (Liquid); method: Vibrating tube method
Temperature, K	Molality, mol/kg	Mass density, kg/m3	uncertainty
293.15	.11135	1111.111	.111
