Compound 1: , , InChI=1S/C2H6O/c1-2-3/h3H,2H2,1H3
Compound 4: , , InChI=1S/Al.3ClH/h;3*1H/q+3;;;/p-3
Compound 5: , , InChI=1S/H2O/h1H2

System: ; phases: Liquid
Fixed: Pressure, kPa = 101
Fixed: Mole fraction = 0
Property: Activity coefficient (Liquid); method: solid-phase micro extraction
Temperature, K	Solvent: Molality, mol/kg	Activity coefficient	uncertainty
323.15	1.125	11.11	1.11
