Compound 1: , , InChI=1S/C7H16/c1-3-5-7-6-4-2/h3-7H2,1-2H3
Compound 3: , , InChI=1S/C5H10O2/c1-3-4-5(6)7-2/h3-4H2,1-2H3

System: ; phases: Liquid
Fixed: Pressure, kPa = 101
Property: Mass density, kg/m3 (Liquid); method: Vibrating tube method
Mole fraction	Temperature, K	Mass density, kg/m3	uncertainty
.0485	298.15	111.11	.11
