Compound 1: , , InChI=1S/CO2/c2-1-3
Compound 2: , , InChI=1S/C8H15N2.BF4/c1-3-4-5-10-7-6-9(2)8-10;2-1(3,4)5/h6-8H,3-5H2,1-2H3;/q+1;-1
Compound 3: , , InChI=1S/C3H6O/c1-3(2)4/h1-2H3

System: ; phases: Liquid, Gas
Property: Vapor or sublimation pressure, kPa (Liquid); method: Closed cell (Static) method
Temperature, K	Solvent: Mole fraction	Mole fraction	Vapor or sublimation pressure, kPa	uncertainty
298.2	.06	.094	111	11
