Compound 1: , , InChI=1S/C2H7NO/c3-1-2-4/h4H,1-3H2
Compound 3: , , InChI=1S/CO2/c2-1-3
Compound 4: , , InChI=1S/H2O/h1H2

System: ; phases: Liquid
Fixed: Pressure, kPa = 101
Property: Mass density, kg/m3 (Liquid); method: Vibrating tube method
Temperature, K	Mole fraction	Solvent: Mass fraction	Mass density, kg/m3	uncertainty
297.97	.006	.1	1111.1	1.1
